/*--------------------------------*- C++ -*----------------------------------*\
| =========                 |                                                 |
| \\      /  F ield         | OpenFOAM: The Open Source CFD Toolbox           |
|  \\    /   O peration     | Version:  v1812                                 |
|   \\  /    A nd           | Web:      www.OpenFOAM.com                      |
|    \\/     M anipulation  |                                                 |
\*---------------------------------------------------------------------------*/
FoamFile
{
    version     2.0;
    format      ascii;
    class       polyBoundaryMesh;
    location    "constant/polyMesh";
    object      boundary;
}
// * * * * * * * * * * * * * * * * * * * * * * * * * * * * * * * * * * * * * //

5
(
    inlet
    {
        type            patch;
        nFaces          286;
        startFace       89449;
    }
    outlet
    {
        type            patch;
        nFaces          148;
        startFace       89735;
    }
    front
    {
        type            symmetry;
        inGroups        1(symmetry);
        nFaces          44936;
        startFace       89883;
    }
    back
    {
        type            symmetry;
        inGroups        1(symmetry);
        nFaces          44936;
        startFace       134819;
    }
    airfoil
    {
        type            wall;
        inGroups        1(wall);
        nFaces          299;
        startFace       179755;
    }
)

// ************************************************************************* //
